Version 4
SHEET 1 880 680
WIRE -80 -32 -128 -32
WIRE 16 -32 -80 -32
WIRE 144 -32 16 -32
WIRE -128 -16 -128 -32
WIRE -80 64 -80 48
WIRE 48 64 -80 64
WIRE 144 64 144 48
WIRE 144 64 128 64
WIRE 144 80 144 64
WIRE 160 80 144 80
WIRE 160 112 144 112
WIRE 16 144 16 48
WIRE 48 144 16 144
WIRE 144 144 144 112
WIRE 144 144 128 144
WIRE -80 160 -80 64
WIRE 16 160 16 144
WIRE 144 192 144 144
WIRE 224 192 224 96
WIRE -80 304 -80 240
WIRE -80 304 -144 304
WIRE 16 304 16 240
WIRE 16 304 0 304
WIRE -144 320 -144 304
WIRE 16 320 16 304
WIRE -144 416 -144 400
WIRE 16 416 16 400
WIRE 16 416 -144 416
WIRE -144 432 -144 416
FLAG -128 -16 0
FLAG -144 432 0
SYMBOL OpAmps\\opamp 192 160 M180
SYMATTR InstName U1
SYMBOL res -96 144 R0
SYMATTR InstName R1
SYMATTR Value 10k
SYMBOL res 0 144 R0
SYMATTR InstName R2
SYMATTR Value 10k
SYMBOL res -96 -48 R0
SYMATTR InstName R3
SYMATTR Value 1k
SYMBOL res 0 -48 R0
SYMATTR InstName R4
SYMATTR Value 1k
SYMBOL res 144 48 R90
WINDOW 0 0 56 VBottom 2
WINDOW 3 32 56 VTop 2
SYMATTR InstName R5
SYMATTR Value 1k
SYMBOL res 144 128 R90
WINDOW 0 0 56 VBottom 2
WINDOW 3 32 56 VTop 2
SYMATTR InstName R6
SYMATTR Value 1k
SYMBOL res 240 176 R90
WINDOW 0 0 56 VBottom 2
WINDOW 3 32 56 VTop 2
SYMATTR InstName R7
SYMATTR Value 100k
SYMBOL res 128 -48 R0
SYMATTR InstName R8
SYMATTR Value 100k
SYMBOL voltage -144 304 R0
WINDOW 0 32 56 VTop 2
WINDOW 3 -32 56 VBottom 2
WINDOW 123 0 0 Left 0
WINDOW 39 0 0 Left 0
SYMATTR InstName V1
SYMATTR Value SINE(48 48 2)
SYMBOL res 16 288 R90
WINDOW 0 0 56 VBottom 2
WINDOW 3 32 56 VTop 2
SYMATTR InstName R9
SYMATTR Value 0.1
SYMBOL res 0 304 R0
SYMATTR InstName R10
SYMATTR Value 25
TEXT -428 354 Left 2 !.tran 0 1 0 0.0001
TEXT -416 384 Left 2 !.lib opamp.sub
